@<TRIPOS>MOLECULE
/home/aamir/Desktop/lammps_training/day_3/ethanol.pdb
 9 8 0 0 0
SMALL
GASTEIGER

@<TRIPOS>ATOM
      1  C1         0.0000    0.0000    0.0000 C.3     1  UNK1       -0.0259
      2  O          1.4300    0.0000    0.0000 O.3     1  UNK1       -0.5838
      3  HA        -0.3650    1.0270    0.0000 H       1  UNK1        0.1213
      4  HB        -0.3670   -0.5180   -0.8860 H       1  UNK1        0.1212
      5  HC         1.7440    0.4510   -0.7900 H       1  UNK1        0.2756
      6  C2        -0.5140   -0.7170    1.2540 C.3     1  UNK1       -0.4183
      7  HD        -0.1550   -0.1980    2.1430 H       1  UNK1        0.1775
      8  HE        -0.1560   -1.7460    1.2590 H       1  UNK1        0.1776
      9  HF        -1.6040   -0.7080    1.2410 H       1  UNK1        0.1548
@<TRIPOS>BOND
     1     4     1    1
     2     5     2    1
     3     1     2    1
     4     1     3    1
     5     1     6    1
     6     9     6    1
     7     6     8    1
     8     6     7    1
